Version 4
SHEET 1 1056 680
WIRE 896 -368 848 -368
WIRE -704 -352 -800 -352
WIRE 848 -336 848 -368
WIRE -704 -304 -704 -352
WIRE -800 -240 -800 -352
WIRE -800 -240 -912 -240
WIRE 848 -224 848 -256
WIRE 848 -224 768 -224
WIRE 848 -192 848 -224
WIRE -912 -176 -912 -240
WIRE -800 -176 -800 -240
WIRE -704 -176 -704 -224
WIRE 80 -176 -32 -176
WIRE 288 -176 144 -176
WIRE 768 -160 768 -224
WIRE 848 -80 848 -112
WIRE 912 -80 848 -80
WIRE -912 -48 -912 -112
WIRE -800 -48 -800 -96
WIRE -800 -48 -912 -48
WIRE -688 -48 -800 -48
WIRE -560 -48 -688 -48
WIRE -32 -48 -32 -176
WIRE -32 -48 -464 -48
WIRE 80 -48 -32 -48
WIRE 288 -48 288 -176
WIRE 288 -48 160 -48
WIRE -272 96 -272 80
WIRE -32 128 -32 -48
WIRE 64 128 -32 128
WIRE 288 160 288 -48
WIRE 288 160 208 160
WIRE 432 160 288 160
WIRE 608 160 512 160
WIRE 752 160 672 160
WIRE 944 160 848 160
WIRE 1024 160 1008 160
WIRE -272 192 -272 176
WIRE -112 192 -272 192
WIRE 64 192 -112 192
WIRE -272 208 -272 192
WIRE 1024 224 1024 160
WIRE -112 256 -112 192
WIRE 144 272 144 240
WIRE 96 288 96 240
WIRE -272 304 -272 288
WIRE -112 368 -112 320
WIRE 1024 368 1024 304
FLAG 896 -368 Vcc
FLAG 96 80 Vcc
FLAG 768 -160 0
FLAG 912 -80 Vee
FLAG 96 288 Vee
FLAG 144 272 Vcc
FLAG -704 -176 0
FLAG -272 80 Vcc
FLAG -272 304 Vee
FLAG -112 368 0
FLAG -560 -16 0
FLAG -464 -16 0
FLAG 752 192 0
FLAG 848 192 0
FLAG 1024 368 0
FLAG 1024 160 Vo
FLAG -688 -48 Vi
SYMBOL voltage 848 -352 R0
WINDOW 123 0 0 Left 0
WINDOW 39 0 0 Left 0
SYMATTR InstName V1
SYMATTR Value 5
SYMBOL res 176 -64 R90
WINDOW 0 0 56 VBottom 2
WINDOW 3 32 56 VTop 2
SYMATTR InstName R1
SYMATTR Value 5k
SYMBOL current -800 -176 R0
WINDOW 123 43 41 Left 2
WINDOW 39 0 0 Left 0
SYMATTR Value2 AC 1
SYMATTR InstName I1
SYMATTR Value ""
SYMBOL cap -896 -112 R180
WINDOW 0 24 56 Left 2
WINDOW 3 24 8 Left 2
SYMATTR InstName C2
SYMATTR Value 4pF
SYMBOL OpAmps\\LTC6268-10 96 160 R0
SYMATTR InstName U1
SYMBOL voltage 848 -208 R0
WINDOW 123 0 0 Left 0
WINDOW 39 0 0 Left 0
SYMATTR InstName V2
SYMATTR Value 0
SYMBOL voltage -704 -320 R0
WINDOW 123 0 0 Left 0
WINDOW 39 0 0 Left 0
SYMATTR InstName V3
SYMATTR Value 10
SYMBOL res -288 80 R0
SYMATTR InstName R3
SYMATTR Value 5.1k
SYMBOL res -288 192 R0
SYMATTR InstName R4
SYMATTR Value 5.1k
SYMBOL cap -128 256 R0
SYMATTR InstName C3
SYMATTR Value 10µF
SYMBOL cap 672 144 R90
WINDOW 0 0 32 VBottom 2
WINDOW 3 32 32 VTop 2
SYMATTR InstName C5
SYMATTR Value .1µF
SYMBOL res 528 144 R90
WINDOW 0 0 56 VBottom 2
WINDOW 3 32 56 VTop 2
SYMATTR InstName R5
SYMATTR Value 50
SYMBOL tline -512 -32 R0
SYMATTR InstName T1
SYMATTR Value Td=.1n Z0=50
SYMBOL tline 800 176 R0
SYMATTR InstName T2
SYMATTR Value Td=0.1n Z0=50
SYMBOL res 1040 320 R180
WINDOW 0 36 76 Left 2
WINDOW 3 36 40 Left 2
SYMATTR InstName R7
SYMATTR Value 50
SYMBOL cap 1008 144 R90
WINDOW 0 0 32 VBottom 2
WINDOW 3 32 32 VTop 2
SYMATTR InstName C6
SYMATTR Value .1µF
SYMBOL cap 144 -192 R90
WINDOW 0 0 32 VBottom 2
WINDOW 3 32 32 VTop 2
SYMATTR InstName C1
SYMATTR Value .4p
TEXT -232 -104 Left 2 !.ac dec 100 1 10G
